.. _telemac-user-documentation:

TELEMAC
=======

.. important::
    |   Useful information are printed in the console (times, errors, warnings, etc).
        Do not hesitate to open it.
    |   On Windows, ``Window > Toggle System Console``.


.. _telemac-user-documentation-quick-overview:

Quick overview
--------------

.. video:: ../../_static/videos/demo_telemac.mp4
    :width: 900

|


.. _telemac-user-documentation-detailed-documentation:

Detailed documentation
----------------------

.. toctree::
    :maxdepth: 1
    :glob:

    import
    preview
    create_sequence
    interpolation
    point_data
    volume
